Version 4
SHEET 1 2500 680
WIRE -736 -176 -736 -240
WIRE -512 -176 -512 -240
WIRE 192 -144 0 -144
WIRE 368 -144 272 -144
WIRE -736 -80 -736 -96
WIRE -512 -80 -512 -96
WIRE 0 -48 0 -144
WIRE 48 -48 0 -48
WIRE 160 -48 128 -48
WIRE 368 0 368 -144
WIRE 416 0 368 0
WIRE 560 0 496 0
WIRE -144 112 -192 112
WIRE 0 112 0 -48
WIRE 0 112 -64 112
WIRE 32 112 0 112
WIRE 160 128 160 -48
WIRE 160 128 96 128
WIRE 256 128 160 128
WIRE 368 128 368 0
WIRE 368 128 336 128
WIRE 416 128 368 128
WIRE -640 144 -640 96
WIRE -640 144 -704 144
WIRE -192 144 -192 112
WIRE 32 144 -32 144
WIRE 560 144 560 0
WIRE 560 144 480 144
WIRE 608 144 560 144
WIRE -704 160 -704 144
WIRE 416 160 368 160
WIRE -640 192 -640 144
WIRE -32 240 -32 144
WIRE 368 240 368 160
FLAG -192 144 0
FLAG -736 -80 0
FLAG -512 -80 0
FLAG -704 160 0
FLAG -640 16 Vcc
FLAG -640 272 Vss
FLAG -736 -240 V1
FLAG -512 -240 V2
FLAG 64 96 Vcc
FLAG 448 112 Vcc
FLAG 64 160 Vss
FLAG 448 176 Vss
FLAG 608 144 Vo2
FLAG -32 240 V1
FLAG 160 128 Vo1
FLAG 368 240 V1
SYMBOL res 288 -160 R90
WINDOW 0 0 56 VBottom 2
WINDOW 3 32 56 VTop 2
SYMATTR InstName R1
SYMATTR Value 10k
SYMBOL res 144 -64 R90
WINDOW 0 0 56 VBottom 2
WINDOW 3 32 56 VTop 2
SYMATTR InstName R2
SYMATTR Value 10k
SYMBOL res 512 -16 R90
WINDOW 0 0 56 VBottom 2
WINDOW 3 32 56 VTop 2
SYMATTR InstName R3
SYMATTR Value 10k
SYMBOL res -48 96 R90
WINDOW 0 0 56 VBottom 2
WINDOW 3 32 56 VTop 2
SYMATTR InstName R4
SYMATTR Value 10k
SYMBOL res 352 112 R90
WINDOW 0 0 56 VBottom 2
WINDOW 3 32 56 VTop 2
SYMATTR InstName R5
SYMATTR Value 10k
SYMBOL voltage -736 -192 R0
WINDOW 0 43 28 Left 2
WINDOW 3 43 56 Left 2
WINDOW 123 0 0 Left 0
WINDOW 39 0 0 Left 0
SYMATTR InstName V1
SYMATTR Value ""
SYMBOL voltage -512 -192 R0
WINDOW 0 40 32 Left 2
WINDOW 3 40 60 Left 2
WINDOW 123 0 0 Left 0
WINDOW 39 0 0 Left 0
SYMATTR InstName V2
SYMATTR Value ""
SYMBOL voltage -640 0 R0
WINDOW 123 0 0 Left 0
WINDOW 39 0 0 Left 0
SYMATTR InstName V3
SYMATTR Value 10
SYMBOL voltage -640 176 R0
WINDOW 123 0 0 Left 0
WINDOW 39 0 0 Left 0
SYMATTR InstName V4
SYMATTR Value 10
SYMBOL ZZZ\\OpAmp\\LM324_AB 64 64 R0
SYMATTR InstName U1
SYMBOL ZZZ\\OpAmp\\LM324_AB 448 80 R0
SYMATTR InstName U2
TEXT 408 -312 Left 2 ;AMPLIFICADOR DIFERENCIAL
TEXT -608 336 Left 2 ;FUENTE ALIMENTACION
TEXT -760 -304 Left 2 ;SEÑAL DE ENTRADA
TEXT -786 366 Left 2 !.tran 5m
RECTANGLE Normal -304 352 -784 -352 2
RECTANGLE Normal 800 352 -304 -352 2
