Version 4
SHEET 1 880 680
WIRE 256 -32 256 -64
WIRE 256 -32 80 -32
WIRE 416 -32 256 -32
WIRE 256 80 256 -32
WIRE 80 128 80 -32
WIRE 416 128 416 -32
WIRE 80 240 80 208
WIRE 80 240 -16 240
WIRE 240 240 240 144
WIRE 240 240 80 240
WIRE 272 240 272 144
WIRE 416 240 416 208
WIRE 416 240 272 240
WIRE -512 288 -512 256
WIRE -512 288 -608 288
WIRE 80 304 80 240
WIRE 416 304 416 240
WIRE -608 320 -608 288
WIRE -512 320 -512 288
FLAG 80 384 0
FLAG 416 384 0
FLAG -96 240 Vin
FLAG 256 -64 Vout
FLAG -608 320 0
FLAG -528 0 0
FLAG -512 176 Vcc
FLAG -512 400 Vss
FLAG -528 -80 Vin
FLAG 224 112 Vcc
FLAG 288 112 Vss
SYMBOL ZZZ\\OpAmp\\LM324 256 112 R270
SYMATTR InstName U1
SYMBOL res 64 112 R0
SYMATTR InstName R1
SYMBOL res 400 112 R0
SYMATTR InstName R2
SYMBOL res 0 224 R90
WINDOW 0 0 56 VBottom 2
WINDOW 3 32 56 VTop 2
SYMATTR InstName R3
SYMBOL res 432 400 R180
WINDOW 0 36 76 Left 2
WINDOW 3 36 40 Left 2
SYMATTR InstName R4
SYMBOL res 96 400 R180
WINDOW 0 36 76 Left 2
WINDOW 3 36 40 Left 2
SYMATTR InstName RL
SYMBOL voltage -512 160 R0
SYMATTR InstName V1
SYMBOL voltage -512 304 R0
SYMATTR InstName V2
SYMBOL voltage -528 -96 R0
SYMATTR InstName V3
TEXT -88 -168 Left 2 ;FUENTE DE CORRIENTE CONTROLADA POR TENSION
TEXT -480 -160 Left 2 ;SEÑAL DE ENTRADA
TEXT -536 472 Left 2 ;FUENTE DE ALIMENTACIÓN
RECTANGLE Normal 672 496 -192 -192 2
RECTANGLE Normal -688 496 -192 -192 2
