Version 4
SHEET 1 996 680
WIRE 256 -32 256 -64
WIRE 256 -32 80 -32
WIRE 416 -32 256 -32
WIRE 256 80 256 -32
WIRE 80 128 80 -32
WIRE 416 128 416 -32
WIRE 80 240 80 208
WIRE 240 240 240 144
WIRE 240 240 80 240
WIRE 272 240 272 144
WIRE 416 240 416 208
WIRE 416 240 272 240
WIRE 496 240 416 240
WIRE -512 288 -512 256
WIRE -512 288 -608 288
WIRE 80 304 80 240
WIRE 416 304 416 240
WIRE -608 320 -608 288
WIRE -512 320 -512 288
FLAG 80 384 0
FLAG 416 384 0
FLAG 576 240 Vin
FLAG 256 -64 Vout
FLAG -608 320 0
FLAG -528 0 0
FLAG -512 176 Vcc
FLAG -512 400 Vss
FLAG -528 -80 Vin
FLAG 224 112 Vcc
FLAG 288 112 Vss
SYMBOL res 64 112 R0
SYMATTR InstName R2
SYMATTR Value 10k
SYMBOL res 400 112 R0
SYMATTR InstName R1
SYMATTR Value 100
SYMBOL res 480 256 R270
WINDOW 0 32 56 VTop 2
WINDOW 3 0 56 VBottom 2
SYMATTR InstName R3
SYMATTR Value 1k
SYMBOL res 432 400 R180
WINDOW 0 36 76 Left 2
WINDOW 3 36 40 Left 2
SYMATTR InstName RL
SYMATTR Value {RL}
SYMBOL res 96 400 R180
WINDOW 0 36 76 Left 2
WINDOW 3 36 48 Left 2
SYMATTR InstName R4
SYMATTR Value 100k
SYMBOL voltage -512 160 R0
WINDOW 123 0 0 Left 0
WINDOW 39 0 0 Left 0
SYMATTR InstName V1
SYMATTR Value 10
SYMBOL voltage -512 304 R0
WINDOW 123 0 0 Left 0
WINDOW 39 0 0 Left 0
SYMATTR InstName V2
SYMATTR Value 10
SYMBOL voltage -528 -96 R0
WINDOW 0 42 35 Left 2
WINDOW 3 38 60 Left 2
WINDOW 123 0 0 Left 0
WINDOW 39 0 0 Left 0
SYMATTR InstName V3
SYMATTR Value 0.5
SYMBOL ZZZ\\OpAmp\\LM324_AB 192 112 R270
SYMATTR InstName U1
TEXT -88 -168 Left 2 ;FUENTE DE CORRIENTE CONTROLADA POR TENSIÓN
TEXT -480 -160 Left 2 ;SEÑAL DE ENTRADA
TEXT -536 472 Left 2 ;FUENTE DE ALIMENTACIÓN
TEXT 496 -40 Left 2 !.dc V3 -10 10 0.01
TEXT 488 -96 Left 2 !.param RL 1k\n.step param RL  list 1k 2k 5k 10k
RECTANGLE Normal -688 496 -192 -192 2
RECTANGLE Normal 992 496 -192 -192 2
