Version 4
SHEET 1 932 712
WIRE 112 -64 16 -64
WIRE 240 -64 192 -64
WIRE 304 -64 240 -64
WIRE 512 -64 384 -64
WIRE 240 -32 240 -64
WIRE 16 64 16 -64
WIRE 16 64 -32 64
WIRE 112 64 16 64
WIRE 240 64 240 32
WIRE 240 64 176 64
WIRE -320 80 -320 32
WIRE -320 80 -384 80
WIRE -384 96 -384 80
WIRE -112 96 -112 64
WIRE 512 96 512 -64
WIRE 592 96 512 96
WIRE 736 96 672 96
WIRE -320 128 -320 80
WIRE 16 192 16 64
WIRE 48 192 16 192
WIRE 240 208 240 64
WIRE 240 208 112 208
WIRE 512 224 512 96
WIRE 592 224 512 224
WIRE 736 240 736 96
WIRE 736 240 656 240
WIRE 816 240 736 240
WIRE 128 416 -48 416
WIRE 304 416 128 416
WIRE 128 464 128 416
WIRE 304 464 304 416
WIRE -48 512 -48 416
WIRE 128 560 128 528
WIRE 128 560 80 560
WIRE 304 576 304 528
WIRE 432 576 304 576
WIRE 128 592 128 560
WIRE 304 592 304 576
WIRE 432 592 432 576
WIRE -48 704 -48 592
WIRE 128 704 128 656
WIRE 128 704 -48 704
WIRE 304 704 304 656
WIRE 304 704 128 704
FLAG -112 96 0
FLAG -592 256 0
FLAG -320 -48 Vcc
FLAG -320 208 Vss
FLAG -592 176 Vin
FLAG 816 240 Vout
FLAG -384 96 0
FLAG 80 176 Vcc
FLAG 624 208 Vcc
FLAG 80 240 Vss
FLAG 624 272 Vss
FLAG 48 224 Vin
FLAG 592 256 Vin
FLAG 240 208 Vo1
FLAG 80 560 0
FLAG 432 672 0
SYMBOL diode 176 48 R90
WINDOW 0 0 32 VBottom 2
WINDOW 3 32 32 VTop 2
SYMATTR InstName D1
SYMBOL res 208 -80 R90
WINDOW 0 0 56 VBottom 2
WINDOW 3 32 56 VTop 2
SYMATTR InstName R1
SYMATTR Value 10k
SYMBOL res 400 -80 R90
WINDOW 0 0 56 VBottom 2
WINDOW 3 32 56 VTop 2
SYMATTR InstName R2
SYMATTR Value 5k
SYMBOL res -16 48 R90
WINDOW 0 0 56 VBottom 2
WINDOW 3 32 56 VTop 2
SYMATTR InstName R3
SYMATTR Value 10k
SYMBOL diode 224 -32 R0
SYMATTR InstName D2
SYMBOL voltage -320 -64 R0
WINDOW 123 0 0 Left 0
WINDOW 39 0 0 Left 0
SYMATTR InstName V1
SYMATTR Value 10
SYMBOL voltage -320 112 R0
WINDOW 123 0 0 Left 0
WINDOW 39 0 0 Left 0
SYMATTR InstName V2
SYMATTR Value 10
SYMBOL voltage -592 160 R0
WINDOW 123 0 0 Left 0
WINDOW 39 0 0 Left 0
SYMATTR InstName V3
SYMATTR Value SINE(0 1 1k)
SYMBOL res 688 80 R90
WINDOW 0 0 56 VBottom 2
WINDOW 3 32 56 VTop 2
SYMATTR InstName R4
SYMATTR Value 10k
SYMBOL ZZZ\\OpAmp\\LM324_AB 80 144 R0
SYMATTR InstName U1
SYMBOL ZZZ\\OpAmp\\LM324_AB 624 176 R0
SYMATTR InstName U2
SYMBOL diode 288 464 R0
SYMATTR InstName D3
SYMBOL diode 144 528 R180
WINDOW 0 24 64 Left 2
WINDOW 3 24 0 Left 2
SYMATTR InstName D4
SYMBOL diode 112 592 R0
SYMATTR InstName D5
SYMBOL diode 320 656 R180
WINDOW 0 24 64 Left 2
WINDOW 3 24 0 Left 2
SYMATTR InstName D6
SYMBOL voltage -48 496 R0
WINDOW 123 0 0 Left 0
WINDOW 39 0 0 Left 0
SYMATTR InstName V4
SYMATTR Value SINE(0 0.2 1k)
SYMBOL res 416 576 R0
SYMATTR InstName R5
SYMATTR Value 1k
TEXT 536 -184 Left 2 ;RECTIFICADOR DE PRECISIÓN
TEXT -512 -168 Left 2 ;FUENTE DE ALIMENTACIÓN
TEXT -672 304 Left 2 ;SEÑAL DE ENTRADA
TEXT -690 366 Left 2 !.tran 0 10m 0 1u
RECTANGLE Normal -160 336 -688 -208 2
RECTANGLE Normal 928 336 -160 -208 2
