Version 4
SHEET 1 880 680
WIRE 16 -496 16 -528
WIRE 16 -496 -16 -496
WIRE 112 -496 16 -496
WIRE 304 -496 192 -496
WIRE 16 -352 16 -496
WIRE 96 -352 16 -352
WIRE 304 -336 304 -496
WIRE 304 -336 160 -336
WIRE 336 -336 304 -336
WIRE -96 -320 -96 -352
WIRE 16 -320 -96 -320
WIRE 96 -320 16 -320
WIRE -96 -288 -96 -320
WIRE 16 -176 16 -320
WIRE 112 -176 16 -176
WIRE 304 -176 304 -336
WIRE 304 -176 192 -176
WIRE -96 -160 -96 -208
FLAG -96 -432 0
FLAG 16 -592 0
SYMBOL ZZZ\\OpAmp\\LM324 128 -336 R0
SYMATTR InstName U1
SYMBOL res 208 -512 R90
WINDOW 0 0 56 VBottom 2
WINDOW 3 32 56 VTop 2
SYMATTR InstName R1
SYMBOL res -80 -192 R180
WINDOW 0 36 76 Left 2
WINDOW 3 36 40 Left 2
SYMATTR InstName R2
SYMBOL res -80 -336 R180
WINDOW 0 36 76 Left 2
WINDOW 3 36 40 Left 2
SYMATTR InstName R3
SYMBOL res 208 -192 R90
WINDOW 0 0 56 VBottom 2
WINDOW 3 32 56 VTop 2
SYMATTR InstName R4
SYMBOL cap 0 -592 R0
SYMATTR InstName C1
