Version 4
SHEET 1 880 680
WIRE 16 0 -48 0
WIRE 16 128 16 80
WIRE 192 128 16 128
WIRE 384 144 256 144
WIRE 416 144 384 144
WIRE 192 160 144 160
WIRE 16 176 16 128
WIRE 224 208 224 176
WIRE 144 288 144 160
WIRE 240 288 144 288
WIRE 384 288 384 144
WIRE 384 288 320 288
WIRE -928 304 -928 272
WIRE -928 304 -960 304
WIRE -960 320 -960 304
WIRE 144 320 144 288
WIRE -928 336 -928 304
WIRE 144 448 144 400
WIRE 144 448 48 448
FLAG 16 256 0
FLAG 224 208 0
FLAG -928 112 0
FLAG -448 112 0
FLAG -448 368 0
FLAG -928 32 V+
FLAG 224 112 V+
FLAG -448 32 Vref
FLAG -448 288 Vin
FLAG -48 0 Vin
FLAG 48 448 Vref
FLAG 416 144 Vout
FLAG -960 320 0
FLAG -928 192 Vcc
FLAG -928 416 Vss
SYMBOL ZZZ\\OpAmp\\LM324 224 144 R0
SYMATTR InstName U1
SYMBOL res 0 -16 R0
SYMATTR InstName R1
SYMATTR Value 10k
SYMBOL res 0 160 R0
SYMATTR InstName R2
SYMATTR Value 10k
SYMBOL res 128 304 R0
SYMATTR InstName R3
SYMATTR Value 2k
SYMBOL res 336 272 R90
WINDOW 0 0 56 VBottom 2
WINDOW 3 32 56 VTop 2
SYMATTR InstName R4
SYMATTR Value 10k
SYMBOL voltage -448 16 R0
SYMATTR InstName V1
SYMBOL voltage -448 272 R0
SYMATTR InstName V2
SYMBOL voltage -928 16 R0
WINDOW 123 0 0 Left 0
WINDOW 39 0 0 Left 0
SYMATTR InstName V3
SYMATTR Value 10
SYMBOL voltage -928 176 R0
SYMATTR InstName V4
SYMBOL voltage -928 320 R0
SYMATTR InstName V5
TEXT -1024 -56 Left 2 ;FUENTE ALIMENTACION
TEXT -568 408 Left 2 ;SEÑAL DE ENTRADA
TEXT -632 -48 Left 2 ;SEÑAL DE REFERENCIA
TEXT 144 -64 Left 2 ;COMPARADOR CON HISTÉRESIS
RECTANGLE Normal 560 496 -176 -96 2
RECTANGLE Normal -1040 496 -176 -96 2
RECTANGLE Normal -720 496 -1040 144 2
RECTANGLE Normal -1040 -96 -720 144 2
